/*--------------------------------*- C++ -*----------------------------------*\
  =========                 |
  \\      /  F ield         | OpenFOAM: The Open Source CFD Toolbox
   \\    /   O peration     | Website:  https://openfoam.org
    \\  /    A nd           | Version:  7
     \\/     M anipulation  |
\*---------------------------------------------------------------------------*/
FoamFile
{
    version     2.0;
    format      binary;
    class       polyBoundaryMesh;
    location    "constant/polyMesh";
    object      boundary;
}
// * * * * * * * * * * * * * * * * * * * * * * * * * * * * * * * * * * * * * //

5
(
    ribletSurface
    {
        type            wall;
        inGroups        List<word> 1(wall);
        nFaces          100;
        startFace       4676;
    }
    roof
    {
        type            patch;
        nFaces          100;
        startFace       4776;
    }
    inlet
    {
        type            patch;
        nFaces          24;
        startFace       4876;
    }
    outlet
    {
        type            patch;
        nFaces          24;
        startFace       4900;
    }
    defaultFaces
    {
        type            empty;
        inGroups        List<word> 1(empty);
        nFaces          4800;
        startFace       4924;
    }
)

// ************************************************************************* //
